ipss.test.plugin.core/testData/psse/V31/ieee9_v31.raw
0,   100.00, 31, 0, 1, 60.00     / PSS(R)E 31 RAW created by rawd31  WED, SEP 25 2013  11:54
 00/00/01                      100.0  0    0
 0
     1,'BUS-1       ',  16.5000,3,   1,   1,   1,1.04000,   0.0000
     2,'BUS-2       ',  18.0000,2,   1,   1,   1,1.02500,   9.2800
     3,'BUS-3       ',  13.8000,2,   1,   1,   1,1.02500,   4.6600
     4,'BUS-4       ', 230.0000,1,   1,   1,   1,1.02500,  -2.2200
     5,'BUS-5       ', 230.0000,1,   1,   1,   1,0.99500,  -3.9900
     6,'BUS-6       ', 230.0000,1,   1,   1,   1,1.01200,  -3.6900
     7,'BUS-7       ', 230.0000,1,   1,   1,   1,1.02500,   3.7200
     8,'BUS-8       ', 230.0000,1,   1,   1,   1,1.01500,   0.7300
     9,'BUS-9       ', 230.0000,1,   1,   1,   1,1.03200,   1.9700
 0 /End of Bus data, Begin Load data
     5,'1 ',1,   1,   1,   125.000,    50.000,     0.000,     0.000,     0.000,     0.000,   1
     6,'1 ',1,   1,   1,    90.000,    30.000,     0.000,     0.000,     0.000,     0.000,   1
     8,'1 ',1,   1,   1,   100.000,    35.000,     0.000,     0.000,     0.000,     0.000,   1
 0 /End of Load data, Begin Fixed shunt data
 0 /End of Fixed shunt data, Begin Generator data
     1,'1 ',    71.640,    27.050,  9999.000, -9999.000,1.04000,     0,   100.000, 0.00000E+0, 4.00000E-2, 0.00000E+0, 0.00000E+0,1.00000,1,  100.0,  9999.000, -9999.000,   1,1.0000
     2,'1 ',   163.000,     6.650,  9999.000, -9999.000,1.02500,     0,   100.000, 0.00000E+0, 8.90000E-2, 0.00000E+0, 0.00000E+0,1.00000,1,  100.0,  9999.000, -9999.000,   1,1.0000
     3,'1 ',    85.000,   -10.860, 99990.000,-99990.000,1.02500,     0,   100.000, 0.00000E+0, 1.07000E-1, 0.00000E+0, 0.00000E+0,1.00000,1,  100.0,  9999.000, -9999.000,   1,1.0000
 0 /End of Generator data, Begin Branch data
     4,      5,'0 ', 1.00000E-2, 8.50000E-2,   0.17600,    0.00,    0.00,    0.00,  0.00000,  0.00000,  0.00000,  0.00000,1,2,   0.00,   1,1.0000
     4,      6,'0 ', 1.70000E-2, 9.20000E-2,   0.15800,    0.00,    0.00,    0.00,  0.00000,  0.00000,  0.00000,  0.00000,1,2,   0.00,   1,1.0000
     5,      7,'0 ', 3.20000E-2, 1.61000E-1,   0.30600,    0.00,    0.00,    0.00,  0.00000,  0.00000,  0.00000,  0.00000,1,2,   0.00,   1,1.0000
     6,      9,'0 ', 3.90000E-2, 1.70000E-1,   0.35800,    0.00,    0.00,    0.00,  0.00000,  0.00000,  0.00000,  0.00000,1,2,   0.00,   1,1.0000
     7,      8,'0 ', 8.50000E-3, 7.20000E-2,   0.14900,    0.00,    0.00,    0.00,  0.00000,  0.00000,  0.00000,  0.00000,1,1,   0.00,   1,1.0000
     8,      9,'0 ', 1.19000E-2, 1.00800E-1,   0.20900,    0.00,    0.00,    0.00,  0.00000,  0.00000,  0.00000,  0.00000,1,2,   0.00,   1,1.0000
 0 /End of Branch data, Begin Transformer data
     1,     4,     0,'1 ',1,1,1, 0.00000E+0, 0.00000E+0,2,'GEN1_TO_BUS1',1,   1,1.0000
 0.00000E+0, 5.67000E-2,   100.00
1.00000,  16.500,   0.000,     0.00,     0.00,     0.00, 0,      0, 1.10000, 0.90000, 1.10000, 0.90000,  33, 0, 0.00000, 0.00000
1.00000, 230.000
     2,     7,     0,'1 ',1,1,1, 0.00000E+0, 0.00000E+0,2,'GEN2_TO_BUS2',1,   1,1.0000
 0.00000E+0, 6.25000E-2,   100.00
1.00000,  18.000,   0.000,     0.00,     0.00,     0.00, 0,      0, 1.10000, 0.90000, 1.10000, 0.90000,  33, 0, 0.00000, 0.00000
1.00000, 230.000
     3,     9,     0,'1 ',1,1,1, 0.00000E+0, 0.00000E+0,2,'GEN3_TO_BUS3',1,   1,1.0000
 0.00000E+0, 5.86000E-2,   100.00
1.00000,  13.800,   0.000,     0.00,     0.00,     0.00, 0,      0, 1.10000, 0.90000, 1.10000, 0.90000,  33, 0, 0.00000, 0.00000
1.00000, 230.000
 0 /End of Transformer data, Begin Area interchange data
 0 /End of Area interchange data, Begin Two-terminal dc line data
 0 /End of Two-terminal dc line data, Begin VSC dc line data
 0 /End of VSC dc line data, Begin Impedance correction table data
 0 /End of Impedance correction table data, Begin Multi-terminal dc line data
 0 /End of Multi-terminal dc line data, Begin Multi-section line data
 0 /End of Multi-section line data, Begin Zone data
 0 /End of Zone data, Begin Inter-area transfer data
 0 /End of Inter-area transfer data, Begin Owner data
 0 /End of Owner data, Begin FACTS device data
 0 /End of FACTS device data, Begin Switched shunt data
 0 /End of Switched shunt data
